/*--------------------------------*Thien Phan*-------------------------------*\


| =========                 |                                                 |


| \\      /  F ield         | OpenFOAM: phanquocthien.org                     |


|  \\    /   O peration     | Files are generated by Thien Phan               |


|   \\  /    A nd           | Web:      www.OpenFOAM.com                      |


|    \\/     M anipulation  |         Angle: 14.000                            |


\*---------------------------------------------------------------------------*/


FoamFile

{

    version     2.0;

    format      ascii;

    class       dictionary;

    object      blockMeshDict;

}

// * * * * * * * * * * * * * * * * * * * * * * * * * * * * * * * * * * * * * //


convertToMeters	1	;



geometry

{

}



vertices

(

	(	0	0	0	)	//	0

	(	1	0	0	)	//	1

	(	1	20	0	)	//	2

	(	-19	0	0	)	//	3

	(	0	0	0.01	)	//	4

	(	1	0	0.01	)	//	5

	(	1	20	0.01	)	//	6

	(	-19	0	0.01	)	//	7

	(	21	5	0	)	//	8

	(	21	20	0	)	//	9

	(	21	5	0.01	)	//	10

	(	21	20	0.01	)	//	11

	(	1	-20	0	)	//	12

	(	1	-20	0.01	)	//	13

	(	21	-20	0	)	//	14

	(	21	-20	0.01	)	//	15

	(	1	0	0	)	//	16

	(	1	0	0.01	)	//	17



);






blocks

(

	hex	(0	1	2	3	4	5	6	7)	(	300	200	1	)	//block 1
	edgeGrading

	(

	//	 x-direction	expansion	ratio

	(

(	0.250000000	0.333333333	1.500000000	)

(	0.750000000	0.666666667	1.333333333	)

	)

	0.020000000	0.020000000

	(

(	0.250000000	0.333333333	1.500000000	)

(	0.750000000	0.666666667	1.333333333	)

	)

	//	y-direction	expansion	ratio

	(

(	0.010000000	0.500000000	2.704813829	)

(	0.990000000	0.500000000	18485.560616456	)

	)

	(

(	0.010000000	0.500000000	2.704813829	)

(	0.990000000	0.500000000	18485.560616456	)

	)

	(

(	0.010000000	0.500000000	2.704813829	)

(	0.990000000	0.500000000	18485.560616456	)

	)

	(

(	0.010000000	0.500000000	2.704813829	)

(	0.990000000	0.500000000	18485.560616456	)

	)



	//	z-direction	expansion	ratio

	1	1	1	1

	)



	hex	(1	8	9	2	5	10	11	6)	(	200	200	1)	//block 2
	edgeGrading

	(

	//	x-direction	expansion	ratio

	200	200	200	200

	//	y-direction	expansion	ratio

	(

(	0.010000000	0.500000000	2.704813829	)

(	0.990000000	0.500000000	18485.560616456	)

	)

	92427.803082280	92427.803082280

	(

(	0.010000000	0.500000000	2.704813829	)

(	0.990000000	0.500000000	18485.560616456	)

	)



	//	z-direction	expansion	ratio

	1	1	1	1

	)



	hex	(3	12	16	0	7	13	17	4)	(	300	200	1	)	//block 3
	edgeGrading

	(

	//	x-direction	expansion	ratio

	0.020000000

	(

(	0.250000000	0.333333333	1.500000000	)

(	0.750000000	0.666666667	1.333333333	)

	)

	(

(	0.250000000	0.333333333	1.500000000	)

(	0.750000000	0.666666667	1.333333333	)

	)

	0.020000000

	//	y-direction	expansion	ratio

	(

(	0.990000000	0.500000000	0.000054096	)

(	0.010000000	0.500000000	0.369711212	)

	)

	(

(	0.990000000	0.500000000	0.000054096	)

(	0.010000000	0.500000000	0.369711212	)

	)

	(

(	0.990000000	0.500000000	0.000054096	)

(	0.010000000	0.500000000	0.369711212	)

	)

	(

(	0.990000000	0.500000000	0.000054096	)

(	0.010000000	0.500000000	0.369711212	)

	)



	//	z-direction	expansion	ratio

	1	1	1	1

	)











	hex	(12	14	8	16	13	15	10	17)	(	200	200	1)	//block 4
	edgeGrading

	(

	//	x-direction	expansion	ratio

	200	200	200	200

	//	y-direction	expansion	ratio

	(

(	0.990000000	0.500000000	0.000054096	)

(	0.010000000	0.500000000	0.369711212	)

	)

	0.000010819	0.000010819

	(

(	0.990000000	0.500000000	0.000054096	)

(	0.010000000	0.500000000	0.369711212	)

	)

	//	z-direction	expansion	ratio

	1	1	1	1

	)

);





edges

(

	arc	3 2	(	-13.142135624	14.142135624	0	)

	arc	7 6	(	-13.142135624	14.142135624	0.010000000	)



	spline	1	0

	(

	(	1.000167	0.001249	0	)

	(	0.999929	0.001315	0	)

	(	0.999217	0.001512	0	)

	(	0.998031	0.001841	0	)

	(	0.996371	0.002299	0	)

	(	0.994240	0.002886	0	)

	(	0.991640	0.003600	0	)

	(	0.988571	0.004438	0	)

	(	0.985038	0.005399	0	)

	(	0.981042	0.006479	0	)

	(	0.976588	0.007675	0	)

	(	0.971679	0.008984	0	)

	(	0.966319	0.010402	0	)

	(	0.960513	0.011924	0	)

	(	0.954267	0.013547	0	)

	(	0.947585	0.015265	0	)

	(	0.940473	0.017075	0	)

	(	0.932938	0.018970	0	)

	(	0.924986	0.020945	0	)

	(	0.916624	0.022995	0	)

	(	0.907859	0.025115	0	)

	(	0.898700	0.027298	0	)

	(	0.889155	0.029539	0	)

	(	0.879232	0.031832	0	)

	(	0.868940	0.034171	0	)

	(	0.858288	0.036549	0	)

	(	0.847286	0.038961	0	)

	(	0.835945	0.041400	0	)

	(	0.824274	0.043860	0	)

	(	0.812284	0.046335	0	)

	(	0.799986	0.048818	0	)

	(	0.787392	0.051304	0	)

	(	0.774514	0.053785	0	)

	(	0.761363	0.056257	0	)

	(	0.747952	0.058713	0	)

	(	0.734293	0.061147	0	)

	(	0.720400	0.063553	0	)

	(	0.706285	0.065924	0	)

	(	0.691962	0.068256	0	)

	(	0.677444	0.070542	0	)

	(	0.662746	0.072777	0	)

	(	0.647881	0.074955	0	)

	(	0.632864	0.077070	0	)

	(	0.617710	0.079118	0	)

	(	0.602432	0.081093	0	)

	(	0.587047	0.082990	0	)

	(	0.571569	0.084804	0	)

	(	0.556013	0.086530	0	)

	(	0.540394	0.088164	0	)

	(	0.524729	0.089701	0	)

	(	0.509032	0.091137	0	)

	(	0.493319	0.092468	0	)

	(	0.477606	0.093690	0	)

	(	0.461908	0.094799	0	)

	(	0.446243	0.095792	0	)

	(	0.430624	0.096666	0	)

	(	0.415068	0.097418	0	)

	(	0.399585	0.098045	0	)

	(	0.383955	0.098510	0	)

	(	0.368434	0.098781	0	)

	(	0.353039	0.098857	0	)

	(	0.337785	0.098739	0	)

	(	0.322691	0.098429	0	)

	(	0.307773	0.097928	0	)

	(	0.293046	0.097238	0	)

	(	0.278529	0.096362	0	)

	(	0.264236	0.095306	0	)

	(	0.250184	0.094071	0	)

	(	0.236389	0.092664	0	)

	(	0.222864	0.091090	0	)

	(	0.209627	0.089354	0	)

	(	0.196690	0.087463	0	)

	(	0.184068	0.085424	0	)

	(	0.171775	0.083245	0	)

	(	0.159824	0.080932	0	)

	(	0.148227	0.078494	0	)

	(	0.136998	0.075940	0	)

	(	0.126147	0.073279	0	)

	(	0.115687	0.070518	0	)

	(	0.105627	0.067668	0	)

	(	0.095978	0.064738	0	)

	(	0.086748	0.061738	0	)

	(	0.077949	0.058675	0	)

	(	0.069586	0.055562	0	)

	(	0.061669	0.052405	0	)

	(	0.054205	0.049216	0	)

	(	0.047200	0.046002	0	)

	(	0.040660	0.042773	0	)

	(	0.034590	0.039538	0	)

	(	0.028996	0.036304	0	)

	(	0.023883	0.033080	0	)

	(	0.019252	0.029874	0	)

	(	0.015109	0.026691	0	)

	(	0.011455	0.023538	0	)

	(	0.008293	0.020422	0	)

	(	0.005624	0.017348	0	)

	(	0.003450	0.014320	0	)

	(	0.001771	0.011343	0	)

	(	0.000587	0.008420	0	)

	(	-0.000102	0.005554	0	)

	(	-0.000298	0.002747	0	)

	(	0.000000	0.000000	0	)

	)






	spline	5	4

	(

	(	1.000167	0.001249	0.010000	)

	(	0.999929	0.001315	0.010000	)

	(	0.999217	0.001512	0.010000	)

	(	0.998031	0.001841	0.010000	)

	(	0.996371	0.002299	0.010000	)

	(	0.994240	0.002886	0.010000	)

	(	0.991640	0.003600	0.010000	)

	(	0.988571	0.004438	0.010000	)

	(	0.985038	0.005399	0.010000	)

	(	0.981042	0.006479	0.010000	)

	(	0.976588	0.007675	0.010000	)

	(	0.971679	0.008984	0.010000	)

	(	0.966319	0.010402	0.010000	)

	(	0.960513	0.011924	0.010000	)

	(	0.954267	0.013547	0.010000	)

	(	0.947585	0.015265	0.010000	)

	(	0.940473	0.017075	0.010000	)

	(	0.932938	0.018970	0.010000	)

	(	0.924986	0.020945	0.010000	)

	(	0.916624	0.022995	0.010000	)

	(	0.907859	0.025115	0.010000	)

	(	0.898700	0.027298	0.010000	)

	(	0.889155	0.029539	0.010000	)

	(	0.879232	0.031832	0.010000	)

	(	0.868940	0.034171	0.010000	)

	(	0.858288	0.036549	0.010000	)

	(	0.847286	0.038961	0.010000	)

	(	0.835945	0.041400	0.010000	)

	(	0.824274	0.043860	0.010000	)

	(	0.812284	0.046335	0.010000	)

	(	0.799986	0.048818	0.010000	)

	(	0.787392	0.051304	0.010000	)

	(	0.774514	0.053785	0.010000	)

	(	0.761363	0.056257	0.010000	)

	(	0.747952	0.058713	0.010000	)

	(	0.734293	0.061147	0.010000	)

	(	0.720400	0.063553	0.010000	)

	(	0.706285	0.065924	0.010000	)

	(	0.691962	0.068256	0.010000	)

	(	0.677444	0.070542	0.010000	)

	(	0.662746	0.072777	0.010000	)

	(	0.647881	0.074955	0.010000	)

	(	0.632864	0.077070	0.010000	)

	(	0.617710	0.079118	0.010000	)

	(	0.602432	0.081093	0.010000	)

	(	0.587047	0.082990	0.010000	)

	(	0.571569	0.084804	0.010000	)

	(	0.556013	0.086530	0.010000	)

	(	0.540394	0.088164	0.010000	)

	(	0.524729	0.089701	0.010000	)

	(	0.509032	0.091137	0.010000	)

	(	0.493319	0.092468	0.010000	)

	(	0.477606	0.093690	0.010000	)

	(	0.461908	0.094799	0.010000	)

	(	0.446243	0.095792	0.010000	)

	(	0.430624	0.096666	0.010000	)

	(	0.415068	0.097418	0.010000	)

	(	0.399585	0.098045	0.010000	)

	(	0.383955	0.098510	0.010000	)

	(	0.368434	0.098781	0.010000	)

	(	0.353039	0.098857	0.010000	)

	(	0.337785	0.098739	0.010000	)

	(	0.322691	0.098429	0.010000	)

	(	0.307773	0.097928	0.010000	)

	(	0.293046	0.097238	0.010000	)

	(	0.278529	0.096362	0.010000	)

	(	0.264236	0.095306	0.010000	)

	(	0.250184	0.094071	0.010000	)

	(	0.236389	0.092664	0.010000	)

	(	0.222864	0.091090	0.010000	)

	(	0.209627	0.089354	0.010000	)

	(	0.196690	0.087463	0.010000	)

	(	0.184068	0.085424	0.010000	)

	(	0.171775	0.083245	0.010000	)

	(	0.159824	0.080932	0.010000	)

	(	0.148227	0.078494	0.010000	)

	(	0.136998	0.075940	0.010000	)

	(	0.126147	0.073279	0.010000	)

	(	0.115687	0.070518	0.010000	)

	(	0.105627	0.067668	0.010000	)

	(	0.095978	0.064738	0.010000	)

	(	0.086748	0.061738	0.010000	)

	(	0.077949	0.058675	0.010000	)

	(	0.069586	0.055562	0.010000	)

	(	0.061669	0.052405	0.010000	)

	(	0.054205	0.049216	0.010000	)

	(	0.047200	0.046002	0.010000	)

	(	0.040660	0.042773	0.010000	)

	(	0.034590	0.039538	0.010000	)

	(	0.028996	0.036304	0.010000	)

	(	0.023883	0.033080	0.010000	)

	(	0.019252	0.029874	0.010000	)

	(	0.015109	0.026691	0.010000	)

	(	0.011455	0.023538	0.010000	)

	(	0.008293	0.020422	0.010000	)

	(	0.005624	0.017348	0.010000	)

	(	0.003450	0.014320	0.010000	)

	(	0.001771	0.011343	0.010000	)

	(	0.000587	0.008420	0.010000	)

	(	-0.000102	0.005554	0.010000	)

	(	-0.000298	0.002747	0.010000	)

	(	0.000000	0.000000	0.010000	)

	)






	arc	3 12	(	-13.142135624	 -14.142135624	 0.000000000	)

	arc	7 13	(	-13.142135624	-14.142135624	0.010000000	)



	spline	0	16

	(

	(	0.000000	0.000000	0.000000	)

	(	0.000781	-0.002650	0.000000	)

	(	0.002037	-0.005168	0.000000	)

	(	0.003764	-0.007553	0.000000	)

	(	0.005959	-0.009805	0.000000	)

	(	0.008620	-0.011925	0.000000	)

	(	0.011741	-0.013913	0.000000	)

	(	0.015318	-0.015770	0.000000	)

	(	0.019346	-0.017497	0.000000	)

	(	0.023820	-0.019094	0.000000	)

	(	0.028735	-0.020564	0.000000	)

	(	0.034083	-0.021907	0.000000	)

	(	0.039859	-0.023126	0.000000	)

	(	0.046057	-0.024222	0.000000	)

	(	0.052668	-0.025197	0.000000	)

	(	0.059685	-0.026053	0.000000	)

	(	0.067102	-0.026794	0.000000	)

	(	0.074909	-0.027421	0.000000	)

	(	0.083099	-0.027939	0.000000	)

	(	0.091663	-0.028349	0.000000	)

	(	0.100594	-0.028656	0.000000	)

	(	0.109881	-0.028864	0.000000	)

	(	0.119516	-0.028976	0.000000	)

	(	0.129490	-0.028997	0.000000	)

	(	0.139794	-0.028931	0.000000	)

	(	0.150418	-0.028783	0.000000	)

	(	0.161353	-0.028558	0.000000	)

	(	0.172588	-0.028262	0.000000	)

	(	0.184115	-0.027899	0.000000	)

	(	0.195923	-0.027475	0.000000	)

	(	0.208001	-0.026997	0.000000	)

	(	0.220341	-0.026469	0.000000	)

	(	0.232931	-0.025899	0.000000	)

	(	0.245762	-0.025293	0.000000	)

	(	0.258822	-0.024656	0.000000	)

	(	0.272100	-0.023995	0.000000	)

	(	0.285587	-0.023318	0.000000	)

	(	0.299270	-0.022629	0.000000	)

	(	0.313139	-0.021937	0.000000	)

	(	0.327183	-0.021246	0.000000	)

	(	0.341389	-0.020564	0.000000	)

	(	0.355747	-0.019897	0.000000	)

	(	0.370244	-0.019251	0.000000	)

	(	0.384868	-0.018632	0.000000	)

	(	0.399608	-0.018045	0.000000	)

	(	0.414688	-0.017467	0.000000	)

	(	0.429861	-0.016869	0.000000	)

	(	0.445105	-0.016256	0.000000	)

	(	0.460408	-0.015630	0.000000	)

	(	0.475754	-0.014996	0.000000	)

	(	0.491129	-0.014358	0.000000	)

	(	0.506520	-0.013719	0.000000	)

	(	0.521912	-0.013081	0.000000	)

	(	0.537290	-0.012448	0.000000	)

	(	0.552640	-0.011823	0.000000	)

	(	0.567947	-0.011208	0.000000	)

	(	0.583197	-0.010606	0.000000	)

	(	0.598375	-0.010018	0.000000	)

	(	0.613467	-0.009446	0.000000	)

	(	0.628458	-0.008893	0.000000	)

	(	0.643334	-0.008360	0.000000	)

	(	0.658080	-0.007847	0.000000	)

	(	0.672682	-0.007355	0.000000	)

	(	0.687127	-0.006886	0.000000	)

	(	0.701399	-0.006440	0.000000	)

	(	0.715485	-0.006016	0.000000	)

	(	0.729370	-0.005616	0.000000	)

	(	0.743042	-0.005240	0.000000	)

	(	0.756486	-0.004886	0.000000	)

	(	0.769690	-0.004554	0.000000	)

	(	0.782640	-0.004245	0.000000	)

	(	0.795323	-0.003958	0.000000	)

	(	0.807726	-0.003691	0.000000	)

	(	0.819837	-0.003444	0.000000	)

	(	0.831644	-0.003217	0.000000	)

	(	0.843134	-0.003008	0.000000	)

	(	0.854296	-0.002816	0.000000	)

	(	0.865119	-0.002641	0.000000	)

	(	0.875591	-0.002482	0.000000	)

	(	0.885702	-0.002336	0.000000	)

	(	0.895441	-0.002205	0.000000	)

	(	0.904799	-0.002086	0.000000	)

	(	0.913764	-0.001979	0.000000	)

	(	0.922329	-0.001882	0.000000	)

	(	0.930484	-0.001795	0.000000	)

	(	0.938221	-0.001718	0.000000	)

	(	0.945530	-0.001649	0.000000	)

	(	0.952406	-0.001587	0.000000	)

	(	0.958840	-0.001533	0.000000	)

	(	0.964825	-0.001485	0.000000	)

	(	0.970356	-0.001442	0.000000	)

	(	0.975425	-0.001405	0.000000	)

	(	0.980029	-0.001373	0.000000	)

	(	0.984161	-0.001345	0.000000	)

	(	0.987818	-0.001321	0.000000	)

	(	0.990996	-0.001301	0.000000	)

	(	0.993690	-0.001285	0.000000	)

	(	0.995898	-0.001272	0.000000	)

	(	0.997619	-0.001262	0.000000	)

	(	0.998849	-0.001255	0.000000	)

	(	0.999587	-0.001250	0.000000	)

	(	0.999833	-0.001249	0.000000	)

)





	spline	4	17

	(

	(	0.000000000	0.000000000	0.010000000	)

	(	0.000781000	-0.002650000	0.010000000	)

	(	0.002037000	-0.005168000	0.010000000	)

	(	0.003764000	-0.007553000	0.010000000	)

	(	0.005959000	-0.009805000	0.010000000	)

	(	0.008620000	-0.011925000	0.010000000	)

	(	0.011741000	-0.013913000	0.010000000	)

	(	0.015318000	-0.015770000	0.010000000	)

	(	0.019346000	-0.017497000	0.010000000	)

	(	0.023820000	-0.019094000	0.010000000	)

	(	0.028735000	-0.020564000	0.010000000	)

	(	0.034083000	-0.021907000	0.010000000	)

	(	0.039859000	-0.023126000	0.010000000	)

	(	0.046057000	-0.024222000	0.010000000	)

	(	0.052668000	-0.025197000	0.010000000	)

	(	0.059685000	-0.026053000	0.010000000	)

	(	0.067102000	-0.026794000	0.010000000	)

	(	0.074909000	-0.027421000	0.010000000	)

	(	0.083099000	-0.027939000	0.010000000	)

	(	0.091663000	-0.028349000	0.010000000	)

	(	0.100594000	-0.028656000	0.010000000	)

	(	0.109881000	-0.028864000	0.010000000	)

	(	0.119516000	-0.028976000	0.010000000	)

	(	0.129490000	-0.028997000	0.010000000	)

	(	0.139794000	-0.028931000	0.010000000	)

	(	0.150418000	-0.028783000	0.010000000	)

	(	0.161353000	-0.028558000	0.010000000	)

	(	0.172588000	-0.028262000	0.010000000	)

	(	0.184115000	-0.027899000	0.010000000	)

	(	0.195923000	-0.027475000	0.010000000	)

	(	0.208001000	-0.026997000	0.010000000	)

	(	0.220341000	-0.026469000	0.010000000	)

	(	0.232931000	-0.025899000	0.010000000	)

	(	0.245762000	-0.025293000	0.010000000	)

	(	0.258822000	-0.024656000	0.010000000	)

	(	0.272100000	-0.023995000	0.010000000	)

	(	0.285587000	-0.023318000	0.010000000	)

	(	0.299270000	-0.022629000	0.010000000	)

	(	0.313139000	-0.021937000	0.010000000	)

	(	0.327183000	-0.021246000	0.010000000	)

	(	0.341389000	-0.020564000	0.010000000	)

	(	0.355747000	-0.019897000	0.010000000	)

	(	0.370244000	-0.019251000	0.010000000	)

	(	0.384868000	-0.018632000	0.010000000	)

	(	0.399608000	-0.018045000	0.010000000	)

	(	0.414688000	-0.017467000	0.010000000	)

	(	0.429861000	-0.016869000	0.010000000	)

	(	0.445105000	-0.016256000	0.010000000	)

	(	0.460408000	-0.015630000	0.010000000	)

	(	0.475754000	-0.014996000	0.010000000	)

	(	0.491129000	-0.014358000	0.010000000	)

	(	0.506520000	-0.013719000	0.010000000	)

	(	0.521912000	-0.013081000	0.010000000	)

	(	0.537290000	-0.012448000	0.010000000	)

	(	0.552640000	-0.011823000	0.010000000	)

	(	0.567947000	-0.011208000	0.010000000	)

	(	0.583197000	-0.010606000	0.010000000	)

	(	0.598375000	-0.010018000	0.010000000	)

	(	0.613467000	-0.009446000	0.010000000	)

	(	0.628458000	-0.008893000	0.010000000	)

	(	0.643334000	-0.008360000	0.010000000	)

	(	0.658080000	-0.007847000	0.010000000	)

	(	0.672682000	-0.007355000	0.010000000	)

	(	0.687127000	-0.006886000	0.010000000	)

	(	0.701399000	-0.006440000	0.010000000	)

	(	0.715485000	-0.006016000	0.010000000	)

	(	0.729370000	-0.005616000	0.010000000	)

	(	0.743042000	-0.005240000	0.010000000	)

	(	0.756486000	-0.004886000	0.010000000	)

	(	0.769690000	-0.004554000	0.010000000	)

	(	0.782640000	-0.004245000	0.010000000	)

	(	0.795323000	-0.003958000	0.010000000	)

	(	0.807726000	-0.003691000	0.010000000	)

	(	0.819837000	-0.003444000	0.010000000	)

	(	0.831644000	-0.003217000	0.010000000	)

	(	0.843134000	-0.003008000	0.010000000	)

	(	0.854296000	-0.002816000	0.010000000	)

	(	0.865119000	-0.002641000	0.010000000	)

	(	0.875591000	-0.002482000	0.010000000	)

	(	0.885702000	-0.002336000	0.010000000	)

	(	0.895441000	-0.002205000	0.010000000	)

	(	0.904799000	-0.002086000	0.010000000	)

	(	0.913764000	-0.001979000	0.010000000	)

	(	0.922329000	-0.001882000	0.010000000	)

	(	0.930484000	-0.001795000	0.010000000	)

	(	0.938221000	-0.001718000	0.010000000	)

	(	0.945530000	-0.001649000	0.010000000	)

	(	0.952406000	-0.001587000	0.010000000	)

	(	0.958840000	-0.001533000	0.010000000	)

	(	0.964825000	-0.001485000	0.010000000	)

	(	0.970356000	-0.001442000	0.010000000	)

	(	0.975425000	-0.001405000	0.010000000	)

	(	0.980029000	-0.001373000	0.010000000	)

	(	0.984161000	-0.001345000	0.010000000	)

	(	0.987818000	-0.001321000	0.010000000	)

	(	0.990996000	-0.001301000	0.010000000	)

	(	0.993690000	-0.001285000	0.010000000	)

	(	0.995898000	-0.001272000	0.010000000	)

	(	0.997619000	-0.001262000	0.010000000	)

	(	0.998849000	-0.001255000	0.010000000	)

	(	0.999587000	-0.001250000	0.010000000	)

	(	0.999833000	-0.001249000	0.010000000	)

)






);




faces

(



);



faces

(



);





defaultPatch

{

	name frontAndBack;

	type empty;

}



boundary

(

inlet		// patch name

	{

			type patch;

		faces

		(

			(9 2 6 11)

			(2 3 7 6)

			(3 12 13 7)

			(12 15 14 13)

		);

	}



outlet		// patch name

	{

		type patch;

		faces

		(

			(8 9 10 11)

			(15 8 10 14)

		);

	}


walls		// patch name

	{

		type wall;

		faces

		(

			(0 1 5 4)

			(0 4 17 16)

		);

		}


interface1		// patch name	

	{

		type patch;

			faces

		(
			(1 8 10 5)

		);

	}

interface2		// patch name

		{

		type patch;

			faces

		(

			(16 17 10 8)

		);

	}

);


mergePatchPairs

(

	(interface1 interface2)

);

// * * * * * * * * * * * * * * * * * * * * * * * * * * * * * * * * * * * * * * //

